4
Frame number 0 time 0.0 fs boxsize    3.5939700000    3.5939700000   11.5556000000      3.593970   0.000000   0.000000 -1.796985   3.112469   0.000000  0.000000   0.000000  11.555600
Y     0.0000000000    0.0000000000    0.00000000000
Y     0.0000000000    0.0000000000    5.77780000001
Y     0.0000000000    2.0749795470    8.66670000002
Y     1.7969850000    1.0374897735    2.88890000003
